/*--------------------------------*- C++ -*----------------------------------*\
| =========                 |                                                 |
| \\      /  F ield         | OpenFOAM: The Open Source CFD Toolbox           |
|  \\    /   O peration     | Version:  2.3.0                                 |
|   \\  /    A nd           | Web:      www.OpenFOAM.org                      |
|    \\/     M anipulation  |                                                 |
\*---------------------------------------------------------------------------*/
FoamFile
{
    version     2.0;
    format      ascii;
    class       volVectorField;
    object      U;
}
// * * * * * * * * * * * * * * * * * * * * * * * * * * * * * * * * * * * * * //

dimensions      [0 1 -1 0 0 0 0];

internalField   uniform (0 0 0);

boundaryField
{
    bottom
    {
        type            uniformFixedValue;
        uniformValue    constant (0 0 0);
    }

   
    top
    {
        type            zeroGradient;
    }

    side
    {
        type            uniformFixedValue;
        uniformValue    constant (0 0 0);
    }

    defaultFaces
    {
        type            empty;
    }

    inlet
    {
        type            uniformFixedValue;
        uniformValue     table
        (
            (0.000  (0 0 0))
            (0.01   (1 0 0))
            (0.15   (3 0 0))
            (0.25   (5 0 0))
            (0.35   (9 0 0))
            (0.45   (11 0 0))
            (0.55   (13 0 0))
            (0.65   (15 0 0))
            (0.75   (17 0 0))
            (0.85   (19 0 0))
            (0.95   (21 0 0))
            (1.05   (23 0 0))
            (1.15   (25 0 0))
            (1.25   (27 0 0))
            (1.35   (29 0 0))
            (1.45   (31 0 0))
            (1.55   (33 0 0))
            (1.65   (35 0 0))
            (1.75   (37 0 0))
            (1.85   (39 0 0))
            (1.95   (41 0 0))
            (2.05   (43 0 0))
            (2.15   (45 0 0))
            (2.25   (47 0 0))
            (2.35   (49 0 0))
            (2.45   (51 0 0))
            (2.55   (53 0 0))
            (2.65   (55 0 0))
            (2.75   (57 0 0))
            (2.85   (59 0 0))
            (2.95   (61 0 0))
            (3.05   (63 0 0))
            (3.15   (65 0 0))
            (3.25   (67 0 0))
            (3.35   (69 0 0))
            (3.45   (71 0 0))    
            (3.55   (73 0 0))
            (3.65   (75 0 0))
            (3.75   (79 0 0))
            (3.85   (81 0 0))
            (3.95   (83 0 0))
            (4.05   (85 0 0))
            (4.15   (87 0 0))
            (4.25   (89 0 0))
            (4.35   (91 0 0))
            (4.45   (93 0 0))
            (4.55   (95 0 0))
            (4.65   (97 0 0))
            (4.75   (99 0 0))
            (4.85   (101 0 0))       
            (4.95   (103 0 0))
            (5.05   (105 0 0))
            (5.15   (107 0 0))
            (5.25   (109 0 0))
            (5.35   (111 0 0))
            (5.45   (113 0 0))
            (5.55   (115 0 0))
            (5.65   (117 0 0))
            (5.75   (119 0 0))
            (5.85   (121 0 0))
            (5.95   (123 0 0))
            (6.05   (125 0 0))
            (6.15   (127 0 0))
            (6.25   (129 0 0))
            (6.35   (131 0 0))
            (6.45   (133 0 0))
            (6.55   (135 0 0))
            (6.65   (137 0 0))
            (6.75   (139 0 0))
            (6.85   (141 0 0))
            (6.95   (143 0 0))
            (7.05   (145 0 0))
            (7.15   (147 0 0))
            (7.25   (149 0 0))
            (7.35   (151 0 0))
            (7.45   (153 0 0))    
            (7.55   (155 0 0))
            (7.65   (157 0 0))
            (7.75   (159 0 0))
            (7.85   (161 0 0))
            (7.95   (163 0 0))
            (8.05   (165 0 0))
            (8.15   (167 0 0))
            (8.25   (169 0 0))
            (8.35   (171 0 0))
            (8.45   (173 0 0))
            (8.55   (175 0 0))
            (8.65   (177 0 0))
            (8.75   (179 0 0))
            (8.85   (181 0 0))   
            (8.95   (183 0 0))
            (9.05   (185 0 0))
            (9.15   (187 0 0))
            (9.25   (189 0 0))
            (9.35   (191 0 0))
            (9.45   (193 0 0))    
            (9.55   (195 0 0))
            (9.65   (197 0 0))
            (9.75   (199 0 0))
            (9.85   (200 0 0))
        );
    }


}

// ************************************************************************* //
