/*---------------------------------------------------------------------------*\
| =========                 |                                                 |
| \\      /  F ield         | OpenFOAM: The Open Source CFD Toolbox           |
|  \\    /   O peration     | Version:  1.4                                   |
|   \\  /    A nd           | Web:      http://www.openfoam.org               |
|    \\/     M anipulation  |                                                 |
\*---------------------------------------------------------------------------*/


FoamFile
{
    version         2.0;
    format          ascii;

    root            "";
    case            "";
    instance        "";
    local           "";

    class           dictionary;
    object          couplingProperties;
}

// * * * * * * * * * * * * * * * * * * * * * * * * * * * * * * * * * * * * * //

//===========================================================================//
// sub-models & settings

modelType "A"; // A or B

couplingInterval 10;

voidFractionModel divided;

locateModel engine;//turboEngineM2M;//

meshMotionModel noMeshMotion;

regionModel allRegion;

IOModel "basicIO";

dataExchangeModel twoWayMPI;//twoWayM2M;//twoWayFiles;//oneWayVTK;//

averagingModel dense;//dilute;//

clockModel standardClock;//off;

smoothingModel off;

probeModel off;

forceModels
(
    GidaspowDrag
    //DiFeliceDrag
    //KochHillDrag
    gradPForce
    viscForce
  //  fieldTimeAverage
    //Archimedes
    //volWeightedAverage
    //totalMomentumExchange
);

momCoupleModels
(
    implicitCouple
);

turbulenceModelType "RASProperties";//"LESProperties";//

//===========================================================================//
// sub-model properties

implicitCoupleProps
{
    velFieldName "U";
    granVelFieldName "Us";
    voidfractionFieldName "voidfraction";
}

ArchimedesProps
{
    densityFieldName "rho";
    gravityFieldName "g";
}
gradPForceProps
{
    pFieldName "p";
    densityFieldName "rho";
    voidfractionFieldName "voidfraction";
    velocityFieldName "U";
    //interpolation;
}

viscForceProps
{
    velocityFieldName "U";
    densityFieldName "rho";
 //   interpolation;
}
volWeightedAverageProps
{
    scalarFieldNames
    (
        voidfraction
    );
    vectorFieldNames
    (
    );
    upperThreshold 0.999;
    lowerThreshold 0;
    verbose;
}
totalMomentumExchangeProps
{
    implicitMomExFieldName "Ksl";
    explicitMomExFieldName "none";
    fluidVelFieldName "U";
    granVelFieldName "Us";
    densityFieldName "rho";
}
GidaspowDragProps
{
    velFieldName "U";
    granVelFieldName "Us";
    densityFieldName "rho";
    voidfractionFieldName "voidfraction";
    phi 1;
}
DiFeliceDragProps
{
    velFieldName "U";
    densityFieldName "rho";
    voidfractionFieldName "voidfraction";
}

KochHillDragProps
{
    velFieldName "U";
    densityFieldName "rho";
    voidfractionFieldName "voidfraction";
}

virtualMassForceProps
{
    velFieldName "U";
    densityFieldName "rho";
}

fieldTimeAverageProps
{
    startTime 5.0;

    scalarFieldNames
    (
        "voidfraction"
    );

    vectorFieldNames
    (
        "Us"
    );
}

centreProps
{
    alphaMin 0.10;
}

engineProps
{
    treeSearch true;
}

turboEngineM2MProps
{
    turboEngineProps
    {
        treeSearch true;
    }
}

dividedProps
{
    alphaMin 0.1;
    scaleUpVol 1.0;
    weight 1.0; //1.33;
    verbose;
}

GaussProps
{
    alphaMin 0.35;
    maxCellsPerParticle 250;
    porosity 1.0;
    weight 1.0; //1.33;
    verbose;
}

bigParticleProps
{
    alphaMin 0.35;
    maxCellsPerParticle 250;
    scaleUpVol 1.0;
    weight 1.0; //1.33;
    verbose;
}

oneWayVTKProps
{
    couplingFilename "vtk_out%4.4d.vtk";
    maxNumberOfParticles 50000;
}

twoWayFilesProps
{
    maxNumberOfParticles 50000;
}

twoWayMPIProps
{
    maxNumberOfParticles 50000;
    liggghtsPath "../DEM/in.liggghts_resume";
}

twoWayM2MProps
{
    maxNumberOfParticles 50000;
    liggghtsPath "../DEM/in.liggghts_resume";
 }

particleProbeProps
{
        particleIDsToSample "0";
}
// ************************************************************************* //
