/*--------------------------------*- C++ -*----------------------------------*\
| =========                 |                                                 |
| \\      /  F ield         | OpenFOAM: The Open Source CFD Toolbox           |
|  \\    /   O peration     | Version:  1.6                                   |
|   \\  /    A nd           | Web:      http://www.OpenFOAM.org               |
|    \\/     M anipulation  |                                                 |
\*---------------------------------------------------------------------------*/
FoamFile
{
    version     2.0;
    format      ascii;
    class       dictionary;
    object      blockMeshDict;
}
// * * * * * * * * * * * * * * * * * * * * * * * * * * * * * * * * * * * * * //

convertToMeters 1;

vertices
(
    (0.0 -0.37 -1.0)
    (1.5 -0.17 -1.0)
    (1.5 0.17 -1.0)
    (0.0 0.37 -1.0)
    (0.0 -0.37 2.0)
    (1.5 -0.17 2.0)
    (1.5 0.17 2.0)
    (0.0 0.37 2.0)
);

blocks          
(
    hex (0 1 2 3 4 5 6 7) (15 30 40) simpleGrading (1 1 1)
);

edges           
(
);

patches         
(
    wall outside
    (
        (0 4 7 3)
    )
    wall inside
    (
        (2 6 5 1)
    )
    wall wall
    (
        (3 7 6 2)     
        (1 5 4 0)
    )
    wall bottom
    (
         (0 3 2 1)
    )
    wall top
    (
         (4 5 6 7)
    ) 
);

mergePatchPairs 
(
);

// ************************************************************************* //
