/*--------------------------------*- C++ -*----------------------------------*\
| =========                 |                                                 |
| \\      /  F ield         | OpenFOAM: The Open Source CFD Toolbox           |
|  \\    /   O peration     | Version:  2.3.d                                 |
|   \\  /    A nd           | Web:      www.OpenFOAM.org                      |
|    \\/     M anipulation  |                                                 |
\*---------------------------------------------------------------------------*/
FoamFile
{
    version     2.0;
    format      ascii;
    class       polyBoundaryMesh;
    location    "constant/polyMesh";
    object      boundary;
}
// * * * * * * * * * * * * * * * * * * * * * * * * * * * * * * * * * * * * * //

4
(
    bottom
    {
        type            wall;
        inGroups        1(wall);
        nFaces          968;
        startFace       35068;
    }
    top
    {
        type            wall;
        inGroups        1(wall);
        nFaces          360;
        startFace       36036;
    }
    side
    {
        type            wall;
        inGroups        1(wall);
        nFaces          1972;
        startFace       36396;
    }
    inlet
    {
        type            patch;
        nFaces          4;
        startFace       38368;
    }
)

// ************************************************************************* //
