/*--------------------------------*- C++ -*----------------------------------*\
| =========                 |                                                 |
| \\      /  F ield         | OpenFOAM: The Open Source CFD Toolbox           |
|  \\    /   O peration     | Version:  1.6                                   |
|   \\  /    A nd           | Web:      www.OpenFOAM.org                      |
|    \\/     M anipulation  |                                                 |
\*---------------------------------------------------------------------------*/
FoamFile
{
    version     2.0;
    format      ascii;
    class       dictionary;
    location    "system";
    object      fvSolution;
}
// * * * * * * * * * * * * * * * * * * * * * * * * * * * * * * * * * * * * * //

solvers
{
/*    p
    {
        solver          PCG;
        preconditioner  DIC;
        tolerance       1e-06;
        relTol          0.1;
    }

    pFinal
    {
        solver          PCG;
        preconditioner  DIC;
        tolerance       1e-06;
        relTol          0;
    }
*/

    p
    {
        solver          GAMG;
        tolerance       1e-6;
        relTol          0.1;

        smoother        GaussSeidel;
        nPreSweeps      0;
        nPostSweeps     2;
//        nFinestSweeps   2;

        cacheAgglomeration true;

        nCellsInCoarsestLevel 50;//10;
        agglomerator    faceAreaPair;
        mergeLevels     1;
    };

    pFinal
    {
        $p;
        tolerance       1e-6;
        relTol          0;
    };

    c
    {
  //      solver          PBiCG;
  //      preconditioner  DILU;
        solver          smoothSolver;
        smoother        solver          smoothSolver;
31          smoother        symGaussSeidel; ; 
        tolerance       1e-06;
        relTol          0;
    }

    U
    {
        solver          PBiCG;
        preconditioner  DILU;
        tolerance       1e-05;
        relTol          0;
    }
    UFinal
    {
        solver          PBiCG;
        preconditioner  DILU;
        tolerance       1e-05;
        relTol          0;
    }
    k
    {
        solver          PBiCG;
        preconditioner  DILU;
        tolerance       1e-05;
        relTol          0;
    }

    epsilon
    {
        solver          PBiCG;
        preconditioner  DILU;
        tolerance       1e-05;
        relTol          0;
    }

    R
    {
        solver          PBiCG;
        preconditioner  DILU;
        tolerance       1e-05;
        relTol          0;
    }

    nuTilda
    {
        solver          PBiCG;
        preconditioner  DILU;
        tolerance       1e-05;
        relTol          0;
    }
}

// hint from Gijs
relaxationFactors
{
    fields
    {
        p               0.3;
        c               0.3;
        rho             0.03;
    }
    equations
    {
        U               0.7;
        "(c|k|epsilon)"   0.7;
        e               0.5;
    }
}

// end hint

PISO
{
    nCorrectors     4;
    nNonOrthogonalCorrectors 1;
    pRefCell        0;
    pRefValue       0;
}

PIMPLE
{
    nOuterCorrectors 2;
    nCorrectors     2;
    nNonOrthogonalCorrectors 0;
    pRefCell        0;
    pRefValue       0;
}

// ************************************************************************* //
