/*--------------------------------*- C++ -*----------------------------------*\
| =========                 |                                                 |
| \\      /  F ield         | OpenFOAM: The Open Source CFD Toolbox           |
|  \\    /   O peration     | Version:  2.3.0                                 |
|   \\  /    A nd           | Web:      www.OpenFOAM.org                      |
|    \\/     M anipulation  |                                                 |
\*---------------------------------------------------------------------------*/
FoamFile
{
    version     2.0;
    format      ascii;
    class       volVectorField;
    object      U;
}
// * * * * * * * * * * * * * * * * * * * * * * * * * * * * * * * * * * * * * //

dimensions      [0 1 -1 0 0 0 0];

internalField   uniform (0 0 0);

boundaryField
{
    bottom
    {
        type            uniformFixedValue;
        uniformValue    constant (0 0 0);
    }

   
    top
    {
        type            zeroGradient;
    }

    side
    {
        type            uniformFixedValue;
        uniformValue    constant (0 0 0);
    }

    defaultFaces
    {
        type            empty;
    }

    inlet
    {
        type            uniformFixedValue;
        uniformValue     table
        (
            (0.000  (0 0 0))
            (0.01   (5 0 0))
            (0.15   (10 0 0))
            (0.25   (15 0 0))
            (0.35   (20 0 0))
            (0.45   (25 0 0))
            (0.55   (30 0 0))
            (0.65   (35 0 0))
            (0.75   (40 0 0))
            (0.85   (45 0 0))
            (0.95   (50 0 0))
            (1.05   (55 0 0))
            (1.15   (60 0 0))
            (1.25   (65 0 0))
            (1.35   (70 0 0))
            (1.45   (75 0 0))
            (1.55   (80 0 0))
            (1.65   (85 0 0))
            (1.75   (90 0 0))
            (1.85   (95 0 0))
            (1.95   (100 0 0))            
        );
    }


}

// ************************************************************************* //
