/*--------------------------------*- C++ -*----------------------------------*\
| =========                 |                                                 |
| \\      /  F ield         | OpenFOAM: The Open Source CFD Toolbox           |
|  \\    /   O peration     | Version:  2.3.0                                 |
|   \\  /    A nd           | Web:      www.OpenFOAM.org                      |
|    \\/     M anipulation  |                                                 |
\*---------------------------------------------------------------------------*/
FoamFile
{
    version     2.0;
    format      ascii;
    class       dictionary;
    object      topoSetDict;
}

// * * * * * * * * * * * * * * * * * * * * * * * * * * * * * * * * * * * * * //
tuydia 0.15;
actions
(
    {
    name    c_in;
    type    cellSet;
    action  new;
    source  boxToCell;
    sourceInfo
    {
       box (-1 #calc "-0.5*$tuydia" #calc "-0.5*$tuydia")(1 #calc "0.5*$tuydia" #calc "0.5*$tuydia");
    }
  }

 {
    name    inlet;
    type    faceSet;
    action  new;
    source  patchToFace;
    sourceInfo
    {
       name "bottom";
    }
  }

 {
    name    inlet;
    type    faceSet;
    action  subset;
    source  cellToFace;
    sourceInfo
    {
       set c_in;
       option all;
    }
  }
);

// ************************************************************************* //
