/*--------------------------------*- C++ -*----------------------------------*\
| =========                 |                                                 |
| \\      /  F ield         | OpenFOAM: The Open Source CFD Toolbox           |
|  \\    /   O peration     | Version:  2.3.0                                 |
|   \\  /    A nd           | Web:      www.OpenFOAM.org                      |
|    \\/     M anipulation  |                                                 |
\*---------------------------------------------------------------------------*/
FoamFile
{
    version     2.0;
    format      ascii;
    class       volVectorField;
    object      U;
}
// * * * * * * * * * * * * * * * * * * * * * * * * * * * * * * * * * * * * * //

dimensions      [0 1 -1 0 0 0 0];

internalField   uniform (0 0 0);

boundaryField
{
    bottom
    {
        type            uniformFixedValue;
        uniformValue    constant (0 0 0);
    }

   
    top
    {
        type            zeroGradient;
    }

    side
    {
        type            uniformFixedValue;
        uniformValue    constant (0 0 0);
    }

    defaultFaces
    {
        type            empty;
    }

    inlet
    {
        type            uniformFixedValue;
        uniformValue     table
        (
            (0.000  (0 0 0))
            (0.01   (1 0 0))
            (0.15   (3 0 0))
            (0.25   (5 0 0))
            (0.35   (9 0 0))
            (0.45   (11 0 0))
            (0.55   (13 0 0))
            (0.65   (15 0 0))
            (0.75   (17 0 0))
            (0.85   (19 0 0))
            (0.95   (21 0 0))
            (1.05   (23 0 0))
            (1.15   (25 0 0))
            (1.25   (27 0 0))
            (1.35   (29 0 0))
            (1.45   (31 0 0))
            (1.55   (33 0 0))
            (1.65   (35 0 0))
            (1.75   (37 0 0))
            (1.85   (39 0 0))
            (1.95   (41 0 0))
            (2.05   (43 0 0))
            (2.15   (45 0 0))
            (2.25   (47 0 0))
            (2.35   (49 0 0))
            (2.45   (51 0 0))
            (2.55   (53 0 0))
            (2.65   (55 0 0))
            (2.75   (57 0 0))
            (2.85   (59 0 0))
            (2.95   (61 0 0))
            (3.05   (63 0 0))
            (3.15   (65 0 0))
            (3.25   (67 0 0))
            (3.35   (69 0 0))
            (3.45   (71 0 0))    
            (3.55   (73 0 0))
            (3.65   (75 0 0))
            (3.75   (79 0 0))
            (3.85   (81 0 0))
            (3.95   (83 0 0))
            (4.05   (85 0 0))
            (4.15   (87 0 0))
            (4.25   (89 0 0))
            (4.35   (91 0 0))
            (4.45   (93 0 0))
            (4.55   (95 0 0))
            (4.65   (97 0 0))
            (4.75   (99 0 0))
            (4.85   (100 0 0))                      
        );
    }


}

// ************************************************************************* //
